Version 4
SHEET 1 880 680
WIRE 240 -576 -464 -576
WIRE 496 -576 240 -576
WIRE 240 -496 240 -576
WIRE 496 -496 496 -576
WIRE 368 -448 304 -448
WIRE 432 -448 368 -448
WIRE 240 -320 240 -400
WIRE 240 -320 -304 -320
WIRE 368 -320 368 -448
WIRE 368 -320 240 -320
WIRE -464 -224 -464 -576
WIRE 64 -224 -48 -224
WIRE 272 -224 128 -224
WIRE 352 -224 272 -224
WIRE 496 -224 496 -400
WIRE 496 -224 432 -224
WIRE -304 -176 -304 -320
WIRE -48 -176 -48 -224
WIRE 272 -176 272 -224
WIRE 496 -96 496 -224
WIRE 624 -96 496 -96
WIRE 496 -64 496 -96
WIRE -160 -16 -160 -48
WIRE -32 -16 -160 -16
WIRE 272 -16 272 -96
WIRE 272 -16 32 -16
WIRE 352 -16 352 -48
WIRE 352 -16 272 -16
WIRE 432 -16 352 -16
WIRE -160 80 -160 -16
WIRE 272 160 272 -16
WIRE -160 256 -160 160
WIRE -464 352 -464 -144
WIRE -304 352 -304 -96
WIRE 272 352 272 240
WIRE 272 352 -304 352
WIRE 496 352 496 32
WIRE 496 352 272 352
WIRE 496 400 496 352
WIRE 496 608 496 480
FLAG 496 608 0
FLAG 624 -96 V_out
FLAG -160 -48 v_in
FLAG 352 -48 v_b
FLAG -160 256 0
FLAG -48 -176 0
FLAG -464 352 0
SYMBOL voltage -464 -240 R0
WINDOW 123 0 0 Left 0
WINDOW 39 0 0 Left 0
SYMATTR InstName V_CC
SYMATTR Value 5
SYMBOL cap 32 -32 R90
WINDOW 0 0 32 VBottom 2
WINDOW 3 32 32 VTop 2
SYMATTR InstName C1
SYMATTR Value 1µ
SYMBOL npn 432 -64 R0
SYMATTR InstName Q1
SYMATTR Value 2N2222
SYMBOL voltage -160 64 R0
WINDOW 123 24 124 Left 2
WINDOW 39 0 0 Left 0
SYMATTR InstName v_in
SYMATTR Value 0
SYMATTR Value2 AC 1
SYMBOL voltage 496 384 R0
SYMATTR InstName V_EE
SYMATTR Value -5
SYMBOL pnp 432 -400 M180
SYMATTR InstName Q2
SYMATTR Value 2N2907
SYMBOL pnp 304 -400 R180
SYMATTR InstName Q3
SYMATTR Value 2N2907
SYMBOL res -320 -192 R0
SYMATTR InstName R_B
SYMATTR Value 9.3k
SYMBOL res 448 -240 R90
WINDOW 0 0 56 VBottom 2
WINDOW 3 32 56 VTop 2
SYMATTR InstName R2
SYMATTR Value 430k
SYMBOL res 288 -80 R180
WINDOW 0 36 76 Left 2
WINDOW 3 36 40 Left 2
SYMATTR InstName R3
SYMATTR Value 430k
SYMBOL cap 128 -240 R90
WINDOW 0 0 32 VBottom 2
WINDOW 3 32 32 VTop 2
SYMATTR InstName C2
SYMATTR Value 1µ
SYMBOL res 256 144 R0
SYMATTR InstName R1
SYMATTR Value 860k
TEXT -384 408 Left 2 !;.op
TEXT -384 456 Left 2 !.ac dec 100 10 100meg
