Version 4
SHEET 1 880 680
WIRE 176 -112 -288 -112
WIRE 496 -112 176 -112
WIRE -288 -48 -288 -112
WIRE 176 -48 176 -112
WIRE 496 -32 496 -112
WIRE 496 112 496 48
WIRE 624 112 496 112
WIRE 496 144 496 112
WIRE -160 192 -160 160
WIRE -144 192 -160 192
WIRE -32 192 -64 192
WIRE 176 192 176 32
WIRE 176 192 32 192
WIRE 352 192 352 160
WIRE 352 192 176 192
WIRE 432 192 352 192
WIRE -160 288 -160 192
WIRE 496 384 496 240
WIRE -288 560 -288 32
WIRE -160 560 -160 368
WIRE -160 560 -288 560
WIRE 496 576 496 464
WIRE -160 592 -160 560
FLAG 624 112 V_out
FLAG -160 160 v_in
FLAG 352 160 v_b
FLAG -160 592 0
FLAG 496 576 0
SYMBOL voltage -288 -64 R0
WINDOW 123 0 0 Left 0
WINDOW 39 0 0 Left 0
SYMATTR InstName V_CC
SYMATTR Value 5
SYMBOL res 160 -64 R0
SYMATTR InstName R_B
SYMATTR Value 1.86Meg
SYMBOL res 480 -48 R0
SYMATTR InstName R_C
SYMATTR Value 5k
SYMBOL cap 32 176 R90
WINDOW 0 0 32 VBottom 2
WINDOW 3 32 32 VTop 2
SYMATTR InstName C1
SYMATTR Value 1µ
SYMBOL npn 432 144 R0
SYMATTR InstName Q1
SYMATTR Value 2N2222
SYMBOL voltage -160 272 R0
WINDOW 123 24 124 Left 2
WINDOW 39 0 0 Left 0
SYMATTR InstName v_in
SYMATTR Value 0
SYMATTR Value2 AC 1
SYMBOL voltage 496 368 R0
SYMATTR InstName V_EE
SYMATTR Value -5
SYMBOL res -48 176 R90
WINDOW 0 0 56 VBottom 2
WINDOW 3 32 56 VTop 2
SYMATTR InstName R1
SYMATTR Value 10k
TEXT -384 616 Left 2 !;.op
TEXT -384 664 Left 2 !.ac dec 100 10 100meg
